Version 4
SHEET 1 1216 1064
WIRE -352 496 -608 496
WIRE -224 496 -352 496
WIRE 96 496 -224 496
WIRE 144 496 96 496
WIRE 256 496 224 496
WIRE 288 496 256 496
WIRE 384 496 352 496
WIRE 464 496 384 496
WIRE 592 496 464 496
WIRE 624 496 592 496
WIRE 720 496 688 496
WIRE 848 496 720 496
WIRE 880 496 848 496
WIRE 96 576 96 496
WIRE -608 592 -608 496
WIRE 384 592 384 496
WIRE 464 592 464 496
WIRE -224 640 -224 496
WIRE -48 640 -224 640
WIRE 256 640 256 496
WIRE 256 640 240 640
WIRE -352 688 -352 496
WIRE 592 688 592 496
WIRE 720 688 720 496
WIRE 848 688 848 496
WIRE -608 720 -608 672
WIRE -144 720 -224 720
WIRE -48 720 -144 720
WIRE 384 720 384 656
WIRE 384 720 240 720
WIRE 464 720 464 672
WIRE 464 720 384 720
WIRE -144 768 -144 720
WIRE 464 768 464 720
WIRE -224 832 -224 720
WIRE -144 880 -144 848
WIRE -352 976 -352 752
WIRE -224 976 -224 896
WIRE -224 976 -352 976
WIRE -144 976 -144 944
WIRE -144 976 -224 976
WIRE 96 976 96 864
WIRE 96 976 -144 976
WIRE 464 976 464 848
WIRE 464 976 96 976
WIRE 592 976 592 752
WIRE 592 976 464 976
WIRE 720 976 720 752
WIRE 720 976 592 976
WIRE 848 976 848 768
WIRE 848 976 720 976
WIRE -608 1008 -608 800
WIRE 96 1008 96 976
FLAG -608 1008 0
FLAG 96 1008 0
FLAG 880 496 Vout
SYMBOL PowerProducts\\LT1317 96 720 R0
SYMATTR InstName U2
SYMBOL ind 128 512 R270
WINDOW 0 32 56 VTop 2
WINDOW 3 5 56 VBottom 2
SYMATTR InstName L3
SYMATTR Value 22µ
SYMATTR SpiceLine Rser=200m
SYMBOL cap 368 592 R0
SYMATTR InstName C4
SYMATTR Value 330p
SYMBOL res 448 576 R0
SYMATTR InstName R4
SYMATTR Value 1.8Meg
SYMBOL res 448 752 R0
SYMATTR InstName R5
SYMATTR Value 124k
SYMBOL cap 576 688 R0
SYMATTR InstName C5
SYMATTR Value 47µ
SYMBOL res -160 752 R0
SYMATTR InstName R6
SYMATTR Value 33k
SYMBOL cap -240 832 R0
SYMATTR InstName C6
SYMATTR Value 100p
SYMBOL cap -160 880 R0
SYMATTR InstName C7
SYMATTR Value 3.3n
SYMBOL cap -368 688 R0
SYMATTR InstName C8
SYMATTR Value 22µ
SYMBOL voltage -608 576 R0
WINDOW 123 0 0 Left 0
WINDOW 39 24 44 Left 2
SYMATTR SpiceLine Rser=10m
SYMATTR InstName V4
SYMATTR Value {Vcell}
SYMBOL voltage -608 704 R0
WINDOW 123 0 0 Left 0
WINDOW 39 24 44 Left 2
SYMATTR SpiceLine Rser=10m
SYMATTR InstName V5
SYMATTR Value {Vcell}
SYMBOL schottky 288 512 R270
WINDOW 0 32 32 VTop 2
WINDOW 3 0 32 VBottom 2
SYMATTR InstName D2
SYMATTR Value MBR735
SYMATTR Description Diode
SYMATTR Type diode
SYMBOL FerriteBead 656 496 R90
WINDOW 0 -16 0 VBottom 2
SYMATTR InstName L4
SYMATTR Value 220n
SYMATTR SpiceLine Ipk=0.2 Rser=0.15 Rpar=159 Cpar=380f mfg="Würth Elektronik" pn="742792711 WE-CBF 0402"
SYMBOL cap 704 688 R0
SYMATTR InstName C9
SYMATTR Value 47µ
SYMBOL bi 848 688 R0
SYMATTR InstName B1
SYMATTR Value I=IF(time<45m,100m,110m)
TEXT -640 1048 Left 2 !.tran 50m
TEXT -608 400 Left 2 !.param Vcell 3
TEXT -608 448 Left 2 !*.step param Rload list 80 120 160 200 240
